
     RDKit          3D

 22 24  0  0  0  0  0  0  0  0999 V2000
    5.7950    0.7094   -2.0179 C   0  0  0  0  0  0  0  0  0  0  0  0
    5.2623    1.0333   -0.7525 O   0  0  0  0  0  0  0  0  0  0  0  0
    4.2646    0.2748   -0.1668 C   0  0  0  0  0  0  0  0  0  0  0  0
    4.5600   -0.7950    0.6544 C   0  0  0  0  0  0  0  0  0  0  0  0
    5.9947   -1.1253    0.9041 C   0  0  0  0  0  0  0  0  0  0  0  0
    3.5605   -1.5466    1.2348 C   0  0  0  0  0  0  0  0  0  0  0  0
    2.2781   -1.2244    0.9908 N   0  0  0  0  0  0  0  0  0  0  0  0
    1.9538   -0.1904    0.1973 C   0  0  0  0  0  0  0  0  0  0  0  0
    0.5459    0.1801   -0.0834 C   0  0  0  0  0  0  0  0  0  0  0  0
   -0.5091   -1.0022    0.8281 S   0  0  0  0  0  4  0  0  0  0  0  0
   -0.3621   -0.5078    2.2815 O   0  0  0  0  0  0  0  0  0  0  0  0
   -2.1550   -0.4288    0.3922 C   0  0  0  0  0  0  0  0  0  0  0  0
   -2.8340   -0.8978   -0.6811 N   0  0  0  0  0  0  0  0  0  0  0  0
   -4.0470   -0.2945   -0.7765 C   0  0  0  0  0  0  0  0  0  0  0  0
   -5.0996   -0.4179   -1.6771 C   0  0  0  0  0  0  0  0  0  0  0  0
   -6.2357    0.3450   -1.5163 C   0  0  0  0  0  0  0  0  0  0  0  0
   -6.2708    1.2120   -0.4450 C   0  0  0  0  0  0  0  0  0  0  0  0
   -5.2325    1.3297    0.4382 C   0  0  0  0  0  0  0  0  0  0  0  0
   -4.0900    0.5754    0.2928 C   0  0  0  0  0  0  0  0  0  0  0  0
   -2.9347    0.4663    0.9721 N   0  0  0  0  0  0  0  0  0  0  0  0
    2.9397    0.5726   -0.3919 C   0  0  0  0  0  0  0  0  0  0  0  0
    2.6160    1.7320   -1.2819 C   0  0  0  0  0  0  0  0  0  0  0  0
  1  2  1  0
  2  3  1  0
  3  4  2  0
  4  5  1  0
  4  6  1  0
  6  7  2  0
  7  8  1  0
  8  9  1  0
 10  9  1  6
 10 11  2  0
 10 12  1  0
 12 13  2  0
 13 14  1  0
 14 15  2  0
 15 16  1  0
 16 17  2  0
 17 18  1  0
 18 19  2  0
 19 20  1  0
  8 21  2  0
 21 22  1  0
 21  3  1  0
 20 12  1  0
 19 14  1  0
M  END
>  <zinc_id>  (1) 
ZINC000000000561

>  <smiles>  (1) 
COc1c(C)cnc(C[S@@](=O)c2nc3ccccc3[nH]2)c1C

$$$$
