
     RDKit          3D

 35 40  0  0  0  0  0  0  0  0999 V2000
   -8.7161    3.7219    0.2318 C   0  0  0  0  0  0  0  0  0  0  0  0
   -8.1150    3.3265   -0.9877 O   0  0  0  0  0  0  0  0  0  0  0  0
   -6.9041    2.6164   -0.9880 C   0  0  0  0  0  0  0  0  0  0  0  0
   -6.2952    2.2183   -2.1540 C   0  0  0  0  0  0  0  0  0  0  0  0
   -5.1124    1.5254   -2.1289 C   0  0  0  0  0  0  0  0  0  0  0  0
   -4.5037    1.2105   -0.9338 C   0  0  0  0  0  0  0  0  0  0  0  0
   -3.2766    0.4923   -0.8918 N   0  0  0  0  0  0  0  0  0  0  0  0
   -2.7279    0.2161    0.3979 C   0  0  0  0  0  0  0  0  0  0  0  0
   -3.2741    0.5736    1.4501 O   0  0  0  0  0  0  0  0  0  0  0  0
   -1.4976   -0.5035    0.4556 N   0  0  0  0  0  0  0  0  0  0  0  0
   -0.7880   -0.9587   -0.6455 C   0  0  0  0  0  0  0  0  0  0  0  0
   -0.5318   -2.4102   -0.4684 C   0  0  0  0  0  0  0  0  0  0  0  0
   -0.0139   -3.3643   -1.2812 N   0  0  0  0  0  0  0  0  0  0  0  0
   -0.0184   -4.4976   -0.5951 C   0  0  0  0  0  0  0  0  0  0  0  0
   -0.5294   -4.2588    0.6243 N   0  0  0  0  0  0  0  0  0  0  0  0
   -0.8660   -2.9472    0.7414 C   0  0  0  0  0  0  0  0  0  0  0  0
   -1.4454   -2.3275    1.9158 C   0  0  0  0  0  0  0  0  0  0  0  0
   -0.9943   -0.7467    1.9220 C   0  0  1  0  0  0  0  0  0  0  0  0
    0.5391   -0.9127    1.6550 C   0  0  0  0  0  0  0  0  0  0  0  0
    1.2055   -0.0811    0.8509 N   0  0  0  0  0  0  0  0  0  0  0  0
    2.5158   -0.4515    0.7966 C   0  0  0  0  0  0  0  0  0  0  0  0
    3.6286    0.1477    0.0549 C   0  0  0  0  0  0  0  0  0  0  0  0
    3.4363    1.2549   -0.7388 C   0  0  0  0  0  0  0  0  0  0  0  0
    4.5129    1.7757   -1.4115 C   0  0  0  0  0  0  0  0  0  0  0  0
    5.7846    1.2466   -1.3350 C   0  0  0  0  0  0  0  0  0  0  0  0
    6.8586    1.7910   -2.0250 C   0  0  0  0  0  0  0  0  0  0  0  0
    8.1237    1.2461   -1.9348 C   0  0  0  0  0  0  0  0  0  0  0  0
    8.3185    0.1354   -1.1391 C   0  0  0  0  0  0  0  0  0  0  0  0
    7.2418   -0.3915   -0.4616 C   0  0  0  0  0  0  0  0  0  0  0  0
    5.9710    0.1364   -0.5375 C   0  0  0  0  0  0  0  0  0  0  0  0
    4.8966   -0.3847    0.1349 C   0  0  0  0  0  0  0  0  0  0  0  0
    2.5819   -1.5215    1.5943 N   0  0  0  0  0  0  0  0  0  0  0  0
    1.3687   -1.7671    2.0926 O   0  0  0  0  0  0  0  0  0  0  0  0
   -5.0951    1.5986    0.2390 C   0  0  0  0  0  0  0  0  0  0  0  0
   -6.2787    2.2913    0.1977 C   0  0  0  0  0  0  0  0  0  0  0  0
  1  2  1  0
  2  3  1  0
  3  4  2  0
  4  5  1  0
  5  6  2  0
  6  7  1  0
  7  8  1  0
  8  9  2  0
  8 10  1  0
 10 11  1  0
 11 12  1  0
 12 13  1  0
 13 14  2  0
 14 15  1  0
 15 16  1  0
 16 17  1  0
 17 18  1  0
 18 19  1  6
 19 20  2  0
 20 21  1  0
 21 22  1  0
 22 23  2  0
 23 24  1  0
 24 25  2  0
 25 26  1  0
 26 27  2  0
 27 28  1  0
 28 29  2  0
 29 30  1  0
 30 31  2  0
 21 32  2  0
 32 33  1  0
  6 34  1  0
 34 35  2  0
 35  3  1  0
 18 10  1  0
 33 19  1  0
 16 12  2  0
 31 22  1  0
 30 25  1  0
M  END
>  <zinc_id>  (1) 
ZINC000015675944

>  <smiles>  (1) 
COc1ccc(NC(=O)N2Cc3nc[nH]c3C[C@H]2c2nc(-c3ccc4ccccc4c3)no2)cc1

$$$$
