
     RDKit          3D

 23 24  0  0  0  0  0  0  0  0999 V2000
    1.0341    2.6880    0.0273 C   0  0  0  0  0  0  0  0  0  0  0  0
    2.2589    1.8551   -0.0994 C   0  0  0  0  0  0  0  0  0  0  0  0
    3.4637    2.5236   -0.0937 C   0  0  0  0  0  0  0  0  0  0  0  0
    3.4954    4.2851    0.0593 Cl  0  0  0  0  0  0  0  0  0  0  0  0
    4.6021    1.7777   -0.2089 C   0  0  0  0  0  0  0  0  0  0  0  0
    4.5900    0.4075   -0.3285 C   0  0  0  0  0  0  0  0  0  0  0  0
    3.3760   -0.2412   -0.3321 C   0  0  0  0  0  0  0  0  0  0  0  0
    2.1983    0.4662   -0.2184 C   0  0  0  0  0  0  0  0  0  0  0  0
    0.9206   -0.1098   -0.2129 N   0  0  0  0  0  0  0  0  0  0  0  0
    0.6281   -1.4808   -0.3201 C   0  0  0  0  0  0  0  0  0  0  0  0
    1.5689   -2.4176   -0.4435 N   0  0  0  0  0  0  0  0  0  0  0  0
    1.2644   -3.7248   -0.5447 C   0  0  0  0  0  0  0  0  0  0  0  0
   -0.0534   -4.1346   -0.5227 C   0  0  0  0  0  0  0  0  0  0  0  0
   -1.0643   -3.2036   -0.3968 C   0  0  0  0  0  0  0  0  0  0  0  0
   -0.6910   -1.8660   -0.2960 C   0  0  0  0  0  0  0  0  0  0  0  0
   -1.7874   -0.8803   -0.1616 C   0  0  0  0  0  0  0  0  0  0  0  0
   -1.4107    0.3094   -0.0739 O   0  0  0  0  0  0  0  0  0  0  0  0
   -3.0703   -1.2836   -0.1406 O   0  0  0  0  0  0  0  0  0  0  0  0
   -4.1780   -0.5023   -0.0196 C   0  0  0  0  0  0  0  0  0  0  0  0
   -4.1660    0.2867    1.4134 C   0  0  2  0  0  0  0  0  0  0  0  0
   -5.5820    0.8888    1.1595 O   0  0  0  0  0  0  0  0  0  0  0  0
   -3.4752    1.6716    0.7517 C   0  0  0  0  0  0  0  0  0  0  0  0
   -3.9221    2.6849    1.5547 O   0  0  0  0  0  0  0  0  0  0  0  0
  1  2  1  0
  2  3  2  0
  3  4  1  0
  3  5  1  0
  5  6  2  0
  6  7  1  0
  7  8  2  0
  8  9  1  0
  9 10  1  0
 10 11  2  0
 11 12  1  0
 12 13  2  0
 13 14  1  0
 14 15  2  0
 15 16  1  0
 16 17  2  0
 16 18  1  0
 18 19  1  0
 19 20  1  0
 20 21  1  6
 20 22  1  0
 22 23  1  0
  8  2  1  0
 15 10  1  0
M  END
>  <zinc_id>  (1) 
ZINC000000000171

>  <smiles>  (1) 
Cc1c(Cl)cccc1Nc1ncccc1C(=O)OC[C@H](O)CO

$$$$
