
     RDKit          3D

 28 31  0  0  0  0  0  0  0  0999 V2000
    8.7562   -1.2739    0.8508 C   0  0  0  0  0  0  0  0  0  0  0  0
    7.2704   -1.3476    1.0145 C   0  0  0  0  0  0  0  0  0  0  0  0
    6.7069   -2.1227    1.8088 O   0  0  0  0  0  0  0  0  0  0  0  0
    6.4740   -0.4937    0.2268 N   0  0  0  0  0  0  0  0  0  0  0  0
    5.0425   -0.5115    0.3325 C   0  0  0  0  0  0  0  0  0  0  0  0
    4.2910    0.3374   -0.4532 C   0  0  0  0  0  0  0  0  0  0  0  0
    2.9166    0.3618   -0.3923 C   0  0  0  0  0  0  0  0  0  0  0  0
    2.2824   -0.4862    0.4778 C   0  0  0  0  0  0  0  0  0  0  0  0
    0.8730   -0.5184    0.5962 N   0  0  0  0  0  0  0  0  0  0  0  0
    0.0211    0.3124   -0.1656 C   0  0  0  0  0  0  0  0  0  0  0  0
    0.5384    1.1107   -0.9799 O   0  0  0  0  0  0  0  0  0  0  0  0
   -1.4323    0.2792   -0.0433 C   0  0  0  0  0  0  0  0  0  0  0  0
   -2.2435    1.0998   -0.7976 C   0  0  0  0  0  0  0  0  0  0  0  0
   -3.6165    1.0870   -0.7003 C   0  0  0  0  0  0  0  0  0  0  0  0
   -4.4538    1.9753   -1.5192 C   0  0  0  0  0  0  0  0  0  0  0  0
   -5.8166    2.0412   -1.4998 C   0  0  0  0  0  0  0  0  0  0  0  0
   -6.1969    3.0018   -2.4177 C   0  0  0  0  0  0  0  0  0  0  0  0
   -5.0249    3.4884   -2.9668 C   0  0  0  0  0  0  0  0  0  0  0  0
   -4.0443    2.8375   -2.3894 O   0  0  0  0  0  0  0  0  0  0  0  0
   -4.1573    0.2250    0.1779 N   0  0  0  0  0  0  0  0  0  0  0  0
   -3.3876   -0.6005    0.9395 C   0  0  0  0  0  0  0  0  0  0  0  0
   -3.9883   -1.4804    1.8390 C   0  0  0  0  0  0  0  0  0  0  0  0
   -3.2028   -2.3144    2.6080 C   0  0  0  0  0  0  0  0  0  0  0  0
   -1.8245   -2.2877    2.4968 C   0  0  0  0  0  0  0  0  0  0  0  0
   -1.2061   -1.4263    1.6143 C   0  0  0  0  0  0  0  0  0  0  0  0
   -2.0122   -0.6049    0.8589 C   0  0  0  0  0  0  0  0  0  0  0  0
    3.0328   -1.3290    1.2574 C   0  0  0  0  0  0  0  0  0  0  0  0
    4.4022   -1.3602    1.2036 C   0  0  0  0  0  0  0  0  0  0  0  0
  1  2  1  0
  2  3  2  0
  2  4  1  0
  4  5  1  0
  5  6  2  0
  6  7  1  0
  7  8  2  0
  8  9  1  0
  9 10  1  0
 10 11  2  0
 10 12  1  0
 12 13  2  0
 13 14  1  0
 14 15  1  0
 15 16  2  0
 16 17  1  0
 17 18  2  0
 18 19  1  0
 14 20  2  0
 20 21  1  0
 21 22  2  0
 22 23  1  0
 23 24  2  0
 24 25  1  0
 25 26  2  0
  8 27  1  0
 27 28  2  0
 28  5  1  0
 26 12  1  0
 19 15  1  0
 26 21  1  0
M  END
>  <zinc_id>  (1) 
ZINC000002622269

>  <smiles>  (1) 
CC(=O)Nc1ccc(NC(=O)c2cc(-c3ccco3)nc3ccccc23)cc1

$$$$
